LTspice 24.1.10 for Windows
Circuit: C:\Users\menda\source\repos\ltspiceMCP\circuitos\sim_1768422099.cir
Start Time: Wed Jan 14 17:21:39 2026
solver = Normal
Maximum thread count: 12
tnom = 27
temp = 27
method = trap
.OP point found by inspection.
Total elapsed time: 0.143 seconds.

Files loaded:
C:\Users\menda\source\repos\ltspiceMCP\circuitos\sim_1768422099.cir

