LTspice 24.1.10 for Windows
Circuit: C:\Users\menda\source\repos\ltspiceMCP\circuitos\sim_1768422547.cir
Start Time: Wed Jan 14 17:29:08 2026
solver = Normal
Maximum thread count: 12
tnom = 27
temp = 27
method = trap
Direct Newton iteration for .op point succeeded.
Total elapsed time: 0.130 seconds.

Files loaded:
C:\Users\menda\source\repos\ltspiceMCP\circuitos\sim_1768422547.cir
C:\Users\menda\AppData\Local\LTspice\lib\sub\LTC.lib

